units lj
dimension 3
boundary p p p
neighbor 0.4 bin
neigh_modify every 1 delay 0 check yes
# comm_modify mode single cutoff 2.5 vel yes
comm_modify vel yes

atom_style hybrid angle mdpd charge
bond_style harmonic
angle_style harmonic

read_data end.data
Reading data file ...
  orthogonal box = (-0.69994298 -0.69994298 -0.69994298) to (10.699943 10.699943 10.699943)
  reading atoms ...
  8985 atoms
  reading velocities ...
  8985 velocities
  scanning bonds ...
  scanning angles ...
  reading bonds ...
  3000 bonds
  reading angles ...
  2000 angles
Finding 1-2 1-3 1-4 neighbors ...
     2 = max # of 1-2 neighbors
     1 = max # of 1-3 neighbors
     2 = max # of 1-4 neighbors
     3 = max # of special neighbors

pair_style hybrid/overlay mdpd/rhosum mdpd 1.0 1.0 65689 coul/long 2.0
# pair_style hybrid/overlay mdpd/rhosum mdpd 1.0 1.0 65689
pair_coeff  *  *   mdpd/rhosum  0.75

# Adds one more property to the atoms, q = charge
# ghost yes is necessary for computational stuff

# dielectric 80

kspace_style pppm 1.0e-5
kspace_modify order 4 mesh 16 16 16

set type 1 charge  -1
Setting atom values ...
  1000 settings made for charge
set type 3 charge  1
Setting atom values ...
  1000 settings made for charge
pair_coeff  1*3  1*3 coul/long

# 1 - Qa (SDS-H)
# 2 - C1
# 3 - Qd (Na)
# 4 - W

variable gamma equal 0 # 4.5

pair_coeff  1  1   mdpd  -30.0  25.0  $(v_gamma)  1.0  0.75
pair_coeff  1  1   mdpd  -30.0  25.0  0  1.0  0.75
pair_coeff  1  2   mdpd  -26.0  25.0  $(v_gamma)  1.0  0.75
pair_coeff  1  2   mdpd  -26.0  25.0  0  1.0  0.75
pair_coeff  1  3   mdpd  -30.0  25.0  $(v_gamma)  1.0  0.75
pair_coeff  1  3   mdpd  -30.0  25.0  0  1.0  0.75
pair_coeff  1  4   mdpd  -50.0  25.0  $(v_gamma)  1.0  0.75
pair_coeff  1  4   mdpd  -50.0  25.0  0  1.0  0.75

pair_coeff  2  2   mdpd  -26.0  25.0  $(v_gamma)  1.0  0.75
pair_coeff  2  2   mdpd  -26.0  25.0  0  1.0  0.75
pair_coeff  2  3   mdpd  -26.0  25.0  $(v_gamma)  1.0  0.75
pair_coeff  2  3   mdpd  -26.0  25.0  0  1.0  0.75
pair_coeff  2  4   mdpd  -26.0  25.0  $(v_gamma)  1.0  0.75
pair_coeff  2  4   mdpd  -26.0  25.0  0  1.0  0.75

pair_coeff  3  3   mdpd  -30.0  25.0  $(v_gamma)  1.0  0.75
pair_coeff  3  3   mdpd  -30.0  25.0  0  1.0  0.75
pair_coeff  3  4   mdpd  -50.0  25.0  $(v_gamma)  1.0  0.75
pair_coeff  3  4   mdpd  -50.0  25.0  0  1.0  0.75

pair_coeff  4  4   mdpd  -50.0  25.0  $(v_gamma)  1.0  0.75
pair_coeff  4  4   mdpd  -50.0  25.0  0  1.0  0.75

# special_bonds lj 0 1 1

bond_coeff 1 150 0.5
angle_coeff 1 5 180

dump        mydump  all atom 5000 sds-cont.lammpstrj

thermo              100
timestep            0.01

fix mom all momentum 1000 linear 1 1 1

fix fxnpt all npt temp 1.0 1.3 $(100*dt) tchain 1 iso 0.1 0.1 $(1000*dt)  mtk yes
fix fxnpt all npt temp 1.0 1.3 1 tchain 1 iso 0.1 0.1 $(1000*dt)  mtk yes
fix fxnpt all npt temp 1.0 1.3 1 tchain 1 iso 0.1 0.1 10  mtk yes
run 200000

CITE-CITE-CITE-CITE-CITE-CITE-CITE-CITE-CITE-CITE-CITE-CITE-CITE

Your simulation uses code contributions which should be cited:

- pair mdpd command:

@Article{ZLi2013_POF,
 author = {Li, Z. and Hu, G.H. and Wang, Z.L. and Ma Y.B. and Zhou, Z.W.},
 title = {Three dimensional flow structures in a moving droplet on substrate: a dissipative particle dynamics study},
 journal = {Physics of Fluids},
 year = {2013},
 volume = {25},
 pages = {072103}
}

CITE-CITE-CITE-CITE-CITE-CITE-CITE-CITE-CITE-CITE-CITE-CITE-CITE

PPPM initialization ...
  G vector (1/distance) = 1.0162886
  grid = 16 16 16
  stencil order = 4
  estimated absolute RMS force accuracy = 0.017608307
  estimated relative force accuracy = 0.017608307
  3d grid and FFT values/proc = 1911 512
Generated 0 of 6 mixed pair_coeff terms from geometric mixing rule
  update every 1 steps, delay 0 steps, check yes
Step          Temp          E_pair         E_mol          TotEng         Press          Volume
0   1.0686198     -10.699435      0.47376794    -8.6229154     -0.089874218    1481.4995
Averages over the last 1001 of 2001 rows, steps 100000 to 200000:
Temp E_pair E_mol TotEng Press Volume
1.22516 -10.4572 0.521915 -8.0977 0.107368 1506.78
Loop time of 1959.78 on 14 procs for 200000 steps with 8985 atoms

unfix fxnpt

fix fxnpt all npt temp 1.3 1.3 $(100*dt)  tchain 1 iso 0.1 0.1 $(1000*dt)  mtk yes
fix fxnpt all npt temp 1.3 1.3 1  tchain 1 iso 0.1 0.1 $(1000*dt)  mtk yes
fix fxnpt all npt temp 1.3 1.3 1  tchain 1 iso 0.1 0.1 10  mtk yes
run 500000
PPPM initialization ...
  G vector (1/distance) = 1.0134444
  grid = 16 16 16
  stencil order = 4
  estimated absolute RMS force accuracy = 0.017830651
  estimated relative force accuracy = 0.017830651
  3d grid and FFT values/proc = 1911 512
Generated 0 of 6 mixed pair_coeff terms from geometric mixing rule
Step          Temp          E_pair         E_mol          TotEng         Press          Volume
200000   1.3194277     -10.318802      0.55702185    -7.7828594      0.33502929     1513.0736
Averages over the last 2501 of 5001 rows, steps 450000 to 700000:
Temp E_pair E_mol TotEng Press Volume
1.29987 -10.3328 0.548007 -7.83518 0.095701 1517.82
Loop time of 5039.61 on 14 procs for 500000 steps with 8985 atoms

unfix fxnpt

fix fxnpt all npt temp 1.3 1.1 $(100*dt) iso 0.1 0.1 $(1000*dt)  mtk yes
fix fxnpt all npt temp 1.3 1.1 1 iso 0.1 0.1 $(1000*dt)  mtk yes
fix fxnpt all npt temp 1.3 1.1 1 iso 0.1 0.1 10  mtk yes
run 1000000
PPPM initialization ...
  G vector (1/distance) = 1.013726
  grid = 16 16 16
  stencil order = 4
  estimated absolute RMS force accuracy = 0.017808552
  estimated relative force accuracy = 0.017808552
  3d grid and FFT values/proc = 1911 512
Generated 0 of 6 mixed pair_coeff terms from geometric mixing rule
Step          Temp          E_pair         E_mol          TotEng         Press          Volume
700000   1.3309065     -10.265108      0.57890176    -7.6900686      1.1844288      1509.9191
Averages over the last 5001 of 10001 rows, steps 1200000 to 1700000:
Temp E_pair E_mol TotEng Press Volume
1.29685 -10.3645 0.546611 -7.87288 0.102144 1515.06
Loop time of 10024.2 on 14 procs for 1000000 steps with 8985 atoms

unfix fxnpt

variable gamma equal 4.5 # 4.5
pair_coeff  1  1   mdpd  -30.0  25.0  $(v_gamma)  1.0  0.75
pair_coeff  1  1   mdpd  -30.0  25.0  4.5  1.0  0.75
pair_coeff  1  2   mdpd  -26.0  25.0  $(v_gamma)  1.0  0.75
pair_coeff  1  2   mdpd  -26.0  25.0  4.5  1.0  0.75
pair_coeff  1  3   mdpd  -30.0  25.0  $(v_gamma)  1.0  0.75
pair_coeff  1  3   mdpd  -30.0  25.0  4.5  1.0  0.75
pair_coeff  1  4   mdpd  -50.0  25.0  $(v_gamma)  1.0  0.75
pair_coeff  1  4   mdpd  -50.0  25.0  4.5  1.0  0.75

pair_coeff  2  2   mdpd  -26.0  25.0  $(v_gamma)  1.0  0.75
pair_coeff  2  2   mdpd  -26.0  25.0  4.5  1.0  0.75
pair_coeff  2  3   mdpd  -26.0  25.0  $(v_gamma)  1.0  0.75
pair_coeff  2  3   mdpd  -26.0  25.0  4.5  1.0  0.75
pair_coeff  2  4   mdpd  -26.0  25.0  $(v_gamma)  1.0  0.75
pair_coeff  2  4   mdpd  -26.0  25.0  4.5  1.0  0.75

pair_coeff  3  3   mdpd  -30.0  25.0  $(v_gamma)  1.0  0.75
pair_coeff  3  3   mdpd  -30.0  25.0  4.5  1.0  0.75
pair_coeff  3  4   mdpd  -50.0  25.0  $(v_gamma)  1.0  0.75
pair_coeff  3  4   mdpd  -50.0  25.0  4.5  1.0  0.75

pair_coeff  4  4   mdpd  -50.0  25.0  $(v_gamma)  1.0  0.75
pair_coeff  4  4   mdpd  -50.0  25.0  4.5  1.0  0.75

fix         mvv     all nph iso 0.1 0.1 $(1000*dt)
fix         mvv     all nph iso 0.1 0.1 10
run                 1000000
PPPM initialization ...
  G vector (1/distance) = 1.0139144
  grid = 16 16 16
  stencil order = 4
  estimated absolute RMS force accuracy = 0.017793783
  estimated relative force accuracy = 0.017793783
  3d grid and FFT values/proc = 1911 512
Generated 0 of 6 mixed pair_coeff terms from geometric mixing rule
Step          Temp          E_pair         E_mol          TotEng         Press          Volume
1700000   1.2381959     -10.291173      0.52675832    -7.9073278      0.42332055     1507.8127
Averages over the last 5001 of 10001 rows, steps 2200000 to 2700000:
Temp E_pair E_mol TotEng Press Volume
1.06954 -10.6675 0.458038 -8.60533 0.107326 1482.75
Loop time of 9589.96 on 14 procs for 1000000 steps with 8985 atoms

write_data end-cont.data
System init for write_data ...
PPPM initialization ...
  G vector (1/distance) = 1.0157889
  grid = 16 16 16
  stencil order = 4
  estimated absolute RMS force accuracy = 0.017647241
  estimated relative force accuracy = 0.017647241
  3d grid and FFT values/proc = 1911 512
Generated 0 of 6 mixed pair_coeff terms from geometric mixing rule
