units real
dimension 3
boundary p p p
neighbor 0.3 bin
neigh_modify every 1 check yes

atom_style full
bond_style harmonic
angle_style cosine/squared
special_bonds lj/coul 0 1 1

region     box      block 0 120 0 120 0 120
create_box 4 box bond/types 1 angle/types 1 	extra/special/per/atom 3 	extra/bond/per/atom 2 	extra/angle/per/atom 2
Created orthogonal box = (0 0 0) to (120 120 120)

molecule 1 sds.txt
Read molecule template 1:
# SDS
  1 molecules
  0 fragments
  4 atoms with max type 2
  3 bonds with max type 1
  2 angles with max type 1
  0 dihedrals with max type 0
  0 impropers with max type 0
# 1 - Qa (SDS-H)
# 2 - C1
# 3 - Qd (Na)
# 4 - W

create_atoms     0 random 1000 1234345 box mol 1 1234563
Created 4000 atoms
create_atoms     3 random 1000 12334 box
Created 1000 atoms
# create_atoms     4 random 11000 12333 box
create_atoms     4 random 10675 12333 box
Created 10675 atoms

mass 1 96
mass 2 56
mass 3 23
mass 4 72

pair_style hybrid/overlay lj/gromacs 9 12 coul/long 12

kspace_style pppm 1.0e-5
kspace_modify order 4

dielectric 80

set type 1 charge  -1
Setting atom values ...
  1000 settings made for charge
set type 3 charge  1
Setting atom values ...
  1000 settings made for charge
pair_coeff 1*3 1*3 coul/long

# In kcal/mol and Angstrom
pair_coeff 1 1 lj/gromacs  1.19 4.7
pair_coeff 1 2 lj/gromacs  0.48 6.2
pair_coeff 1 3 lj/gromacs  1.33 4.7
pair_coeff 1 4 lj/gromacs  1.33 4.7
pair_coeff 2 2 lj/gromacs  0.84 4.7
pair_coeff 2 3 lj/gromacs  0.48 6.2
pair_coeff 2 4 lj/gromacs  0.48 4.7
pair_coeff 3 3 lj/gromacs  1.19 4.7
pair_coeff 3 4 lj/gromacs  1.33 4.7
pair_coeff 4 4 lj/gromacs  1.19 4.7

bond_coeff 1 2.98 4.7
angle_coeff 1 5.97 180

write_data initial.data
System init for write_data ...
PPPM initialization ...
  G vector (1/distance) = 0.1258738
  grid = 15 15 15
  stencil order = 4
  estimated absolute RMS force accuracy = 0.0042059989
  estimated relative force accuracy = 1.2666241e-05
  3d grid and FFT values/proc = 1728 512
Generated 0 of 6 mixed pair_coeff terms from geometric mixing rule
dump        mydump  all atom 5000 sds.lammpstrj

velocity all create 400 600 dist gaussian
velocity all zero linear

min_style cg
minimize 0 0 10000 100000
PPPM initialization ...
  G vector (1/distance) = 0.1258738
  grid = 15 15 15
  stencil order = 4
  estimated absolute RMS force accuracy = 0.0042059989
  estimated relative force accuracy = 1.2666241e-05
  3d grid and FFT values/proc = 1728 512
Generated 0 of 6 mixed pair_coeff terms from geometric mixing rule
Step          Temp          E_pair         E_mol          TotEng         Press
0   400            8.2561144e+16  1038.2435      8.2561144e+16  1.3104368e+16
Loop time of 17.812 on 8 procs for 3702 steps with 15675 atoms

Minimization stats:
  Stopping criterion = linesearch alpha is zero
  Energy initial, next-to-last, final =
  Force two-norm initial, final = 4.209122e+18 0.89403829
  Force max component initial, final = 2.2898824e+18 0.4402847
  Final line search alpha, max atom move = 8.7109068e-09 3.835279e-09
  Iterations, force evaluations = 3702 5991

write_data initial.data
System init for write_data ...
PPPM initialization ...
  G vector (1/distance) = 0.1258738
  grid = 15 15 15
  stencil order = 4
  estimated absolute RMS force accuracy = 0.0042059989
  estimated relative force accuracy = 1.2666241e-05
  3d grid and FFT values/proc = 1728 512
Generated 0 of 6 mixed pair_coeff terms from geometric mixing rule

thermo              100

timestep 20

fix mom all momentum 1000 linear 1 1 1

fix fxnpt all npt temp 400.0 400.0 $(100*dt) tchain 1 iso 1 1 $(1000*dt) drag 1 mtk yes
fix fxnpt all npt temp 400.0 400.0 2000 tchain 1 iso 1 1 $(1000*dt) drag 1 mtk yes
fix fxnpt all npt temp 400.0 400.0 2000 tchain 1 iso 1 1 20000 drag 1 mtk yes
run 200000
PPPM initialization ...
  G vector (1/distance) = 0.1258738
  grid = 15 15 15
  stencil order = 4
  estimated absolute RMS force accuracy = 0.0042059989
  estimated relative force accuracy = 1.2666241e-05
  3d grid and FFT values/proc = 1728 512
Generated 0 of 6 mixed pair_coeff terms from geometric mixing rule
Step          Temp          E_pair         E_mol          TotEng         Press          Volume
3702   400           -100879.7       642.19674     -81549.017     -838.23406      1728000
Averages over the last 1001 of 2002 rows, steps 103800 to 203702:
Temp E_pair E_mol TotEng Press Volume
399.944 -77465.2 1975.88 -56803.4 1.43351 2.10818e+06
Loop time of 1018.6 on 8 procs for 200000 steps with 15675 atoms

unfix fxnpt

# fix fxnvt all nvt temp 300.0 400.0 $(100*dt) tchain 1
# run 200000
# unfix fxnvt

fix fxnpt all npt temp 400.0 300.0 $(100*dt) iso 1 1 $(1000*dt) drag 1 mtk yes
fix fxnpt all npt temp 400.0 300.0 2000 iso 1 1 $(1000*dt) drag 1 mtk yes
fix fxnpt all npt temp 400.0 300.0 2000 iso 1 1 20000 drag 1 mtk yes
run 500000
PPPM initialization ...
  G vector (1/distance) = 0.12573471
  grid = 16 16 16
  stencil order = 4
  estimated absolute RMS force accuracy = 0.0038257844
  estimated relative force accuracy = 1.1521236e-05
  3d grid and FFT values/proc = 2197 512
Generated 0 of 6 mixed pair_coeff terms from geometric mixing rule
Step          Temp          E_pair         E_mol          TotEng         Press          Volume
203702   399.29204     -77357.109      1953.0283     -56748.671     -8.1644815      2109764.7
Averages over the last 2501 of 5002 rows, steps 453800 to 703702:
Temp E_pair E_mol TotEng Press Volume
324.999 -87015.2 1643.72 -70187.2 1.56537 1.93244e+06
Loop time of 2542.33 on 8 procs for 500000 steps with 15675 atoms

unfix fxnpt

fix fxnptrun all npt temp 300 300 $(100*dt) iso 1 1 $(1000*dt) mtk yes
fix fxnptrun all npt temp 300 300 2000 iso 1 1 $(1000*dt) mtk yes
fix fxnptrun all npt temp 300 300 2000 iso 1 1 20000 mtk yes
run 1000000
PPPM initialization ...
  G vector (1/distance) = 0.12841076
  grid = 16 16 16
  stencil order = 4
  estimated absolute RMS force accuracy = 0.0036739919
  estimated relative force accuracy = 1.1064117e-05
  3d grid and FFT values/proc = 2197 512
Generated 0 of 6 mixed pair_coeff terms from geometric mixing rule
Step          Temp          E_pair         E_mol          TotEng         Press          Volume
703702   299.40382     -90093.589      1552.9144     -74552.164      33.437934      1880764.5
Averages over the last 5001 of 10002 rows, steps 1203800 to 1703702:
Temp E_pair E_mol TotEng Press Volume
300 -90014.7 1538.35 -74459.9 1.12418 1.88397e+06
Loop time of 5069.31 on 8 procs for 1000000 steps with 15675 atoms

write_data end.data
System init for write_data ...
PPPM initialization ...
  G vector (1/distance) = 0.12836569
  grid = 16 16 16
  stencil order = 4
  estimated absolute RMS force accuracy = 0.0036765647
  estimated relative force accuracy = 1.1071865e-05
  3d grid and FFT values/proc = 2197 512
Generated 0 of 6 mixed pair_coeff terms from geometric mixing rule
