units real
dimension 3
boundary p p p
neighbor 0.3 bin
neigh_modify every 1 check yes

atom_style full
bond_style harmonic
angle_style cosine/squared
special_bonds lj/coul 0 1 1

# pair_style lj/gromacs/coul/gromacs 9 12 0.000001 12
pair_style lj/cut/coul/long 12
pair_modify shift yes

read_data end.data
Reading data file ...
  orthogonal box = (-3.2615518 -3.2615518 -3.2615518) to (98.261552 98.261552 98.261552)
  reading atoms ...
  8889 atoms
  reading velocities ...
  8889 velocities
  scanning bonds ...
  scanning angles ...
  reading bonds ...
  3000 bonds
  reading angles ...
  2000 angles
Finding 1-2 1-3 1-4 neighbors ...
     2 = max # of 1-2 neighbors
     2 = max # of special neighbors

kspace_style pppm 1.0e-5
kspace_modify order 4

dielectric 80

set type 1 charge  -1
Setting atom values ...
  1000 settings made for charge
set type 3 charge  1
Setting atom values ...
  1000 settings made for charge

# In kcal/mol and Angstrom
pair_coeff 1 1   1.19 4.7
pair_coeff 1 2   0.48 6.2
pair_coeff 1 3   1.33 4.7
pair_coeff 1 4   1.33 4.7
pair_coeff 2 2   0.84 4.7
pair_coeff 2 3   0.48 6.2
pair_coeff 2 4   0.48 4.7
pair_coeff 3 3   1.19 4.7
pair_coeff 3 4   1.33 4.7
pair_coeff 4 4   1.19 4.7
bond_coeff 1 2.98 4.7
angle_coeff 1 5.97 180

dump        mydump  all atom 5000 sds-continue.lammpstrj

thermo              100
timestep 20

fix mom all momentum 1000 linear 1 1 1

fix fxnpt1 all npt temp 300 400 $(100*dt) iso 1 1 $(1000*dt) mtk yes
fix fxnpt1 all npt temp 300 400 2000 iso 1 1 $(1000*dt) mtk yes
fix fxnpt1 all npt temp 300 400 2000 iso 1 1 20000 mtk yes
run 100000
PPPM initialization ...
  G vector (1/distance) = 0.14214563
  grid = 16 16 16
  stencil order = 4
  estimated absolute RMS force accuracy = 0.0038355804
  estimated relative force accuracy = 1.1550736e-05
  3d grid and FFT values/proc = 2197 512
Generated 0 of 6 mixed pair_coeff terms from geometric mixing rule
  update every 1 steps, delay 10 steps, check yes
Step          Temp          E_pair         E_mol          TotEng         Press          Volume
0   301.44189     -52782.215      1535.2063     -43260.777      24.223124      1046392.6
Averages over the last 501 of 1001 rows, steps 50000 to 100000:
Temp E_pair E_mol TotEng Press Volume
371.489 -47837.1 1848.73 -36146.3 -4.10628 1.12536e+06
Loop time of 171.661 on 8 procs for 100000 steps with 8889 atoms

unfix fxnpt1

fix fxnpt2 all npt temp 400 400 $(100*dt) iso 1 1 $(1000*dt) mtk yes
fix fxnpt2 all npt temp 400 400 2000 iso 1 1 $(1000*dt) mtk yes
fix fxnpt2 all npt temp 400 400 2000 iso 1 1 20000 mtk yes
run 1000000
PPPM initialization ...
  G vector (1/distance) = 0.14800472
  grid = 18 18 18
  stencil order = 4
  estimated absolute RMS force accuracy = 0.0028511541
  estimated relative force accuracy = 8.5861658e-06
  3d grid and FFT values/proc = 2744 972
Generated 0 of 6 mixed pair_coeff terms from geometric mixing rule
Step          Temp          E_pair         E_mol          TotEng         Press          Volume
100000   395.79182     -46089.875      1988.9862     -33615.002     -40.175679      1157412.7
Averages over the last 5001 of 10001 rows, steps 600000 to 1100000:
Temp E_pair E_mol TotEng Press Volume
396.288 -45768.7 1974.76 -33295 -4.42531 1.15858e+06
Loop time of 1989.65 on 8 procs for 1000000 steps with 8889 atoms

unfix fxnpt2

fix fxnpt2 all npt temp 400 300 $(100*dt) iso 1 1 $(1000*dt) mtk yes
fix fxnpt2 all npt temp 400 300 2000 iso 1 1 $(1000*dt) mtk yes
fix fxnpt2 all npt temp 400 300 2000 iso 1 1 20000 mtk yes
run 1000000
PPPM initialization ...
  G vector (1/distance) = 0.14800744
  grid = 18 18 18
  stencil order = 4
  estimated absolute RMS force accuracy = 0.0028509902
  estimated relative force accuracy = 8.5856722e-06
  3d grid and FFT values/proc = 2744 972
Generated 0 of 6 mixed pair_coeff terms from geometric mixing rule
Step          Temp          E_pair         E_mol          TotEng         Press          Volume
1100000   395.44451     -45937.209      1988.5578     -33471.966     -51.556742      1157277.5
Averages over the last 5001 of 10001 rows, steps 1600000 to 2100000:
Temp E_pair E_mol TotEng Press Volume
322.535 -50834.6 1669.97 -40619.5 -3.49283 1.07298e+06
Loop time of 2074.64 on 8 procs for 1000000 steps with 8889 atoms

unfix fxnpt2

fix fxnptrun all npt temp 300 300 $(100*dt) iso 1 1 $(1000*dt) mtk yes
fix fxnptrun all npt temp 300 300 2000 iso 1 1 $(1000*dt) mtk yes
fix fxnptrun all npt temp 300 300 2000 iso 1 1 20000 mtk yes
run 1000000
PPPM initialization ...
  G vector (1/distance) = 0.14212106
  grid = 16 16 16
  stencil order = 4
  estimated absolute RMS force accuracy = 0.003837436
  estimated relative force accuracy = 1.1556325e-05
  3d grid and FFT values/proc = 2197 512
Generated 0 of 6 mixed pair_coeff terms from geometric mixing rule
Step          Temp          E_pair         E_mol          TotEng         Press          Volume
2100000   296.75151     -52326.106      1534.744      -42929.394      70.029455      1047500.6
Averages over the last 5001 of 10001 rows, steps 2600000 to 3100000:
Temp E_pair E_mol TotEng Press Volume
297.973 -52429.6 1570.42 -42964.8 -3.63033 1.04853e+06
Loop time of 2011.68 on 8 procs for 1000000 steps with 8889 atoms

write_data end-cont.data
System init for write_data ...
PPPM initialization ...
  G vector (1/distance) = 0.14204725
  grid = 16 16 16
  stencil order = 4
  estimated absolute RMS force accuracy = 0.0038430121
  estimated relative force accuracy = 1.1573117e-05
  3d grid and FFT values/proc = 2197 512
Generated 0 of 6 mixed pair_coeff terms from geometric mixing rule
