units real
dimension 3
boundary p p p
neighbor 0.3 bin
neigh_modify every 1 check yes

atom_style full
bond_style harmonic
angle_style cosine/squared
special_bonds lj/coul 0 1 1

pair_style lj/gromacs 9 12

read_data end-cont2.data
Reading data file ...
  orthogonal box = (-3.3435324 -3.3435324 -3.3435324) to (98.343532 98.343532 98.343532)
  reading atoms ...
  8889 atoms
  reading velocities ...
  8889 velocities
  scanning bonds ...
  scanning angles ...
  orthogonal box = (-3.3435324 -3.3435324 -3.3435324) to (98.343532 98.343532 98.343532)
  reading bonds ...
  3000 bonds
  reading angles ...
  2000 angles
Finding 1-2 1-3 1-4 neighbors ...
     2 = max # of 1-2 neighbors
     2 = max # of special neighbors

pair_style hybrid/overlay lj/gromacs 9 12 coul/long 12

kspace_style pppm 1.0e-5
kspace_modify order 4

dielectric 80

set type 1 charge  -1
Setting atom values ...
  1000 settings made for charge
set type 3 charge  1
Setting atom values ...
  1000 settings made for charge
pair_coeff 1*3 1*3 coul/long

## In kJ/mol and Angstrom
# pair_coeff 1 1   5.0 4.7
# pair_coeff 1 2   2.0 6.2
# pair_coeff 1 3   5.6 4.7
# pair_coeff 1 4   5.6 4.7
# pair_coeff 2 2   3.5 4.7
# pair_coeff 2 3   2.0 6.2
# pair_coeff 2 4   2.0 4.7
# pair_coeff 3 3   5.0 4.7
# pair_coeff 3 4   5.6 4.7
# pair_coeff 4 4   5.0 4.7
# bond_coeff 1 1250 4.7
# angle_coeff 1 25 180

# In kcal/mol and Angstrom
pair_coeff 1 1 lj/gromacs  1.19 4.7
pair_coeff 1 2 lj/gromacs  0.48 6.2
pair_coeff 1 3 lj/gromacs  1.33 4.7
pair_coeff 1 4 lj/gromacs  1.33 4.7
pair_coeff 2 2 lj/gromacs  0.84 4.7
pair_coeff 2 3 lj/gromacs  0.48 6.2
pair_coeff 2 4 lj/gromacs  0.48 4.7
pair_coeff 3 3 lj/gromacs  1.19 4.7
pair_coeff 3 4 lj/gromacs  1.33 4.7
pair_coeff 4 4 lj/gromacs  1.19 4.7

bond_coeff 1 2.98 4.7
angle_coeff 1 5.97 180

dump        mydump  all atom 10000 sds-continue3.lammpstrj

thermo              100
timestep 20

fix mom all momentum 1000 linear 1 1 1

#fix fxnpt1 all npt temp 300 250 $(100*dt) iso 1 1 $(1000*dt) mtk yes
#run 100000
#unfix fxnpt1

#fix fxnpt2 all npt temp 250 250 $(100*dt) iso 1 1 $(1000*dt) mtk yes
#run 4000000
#unfix fxnpt2

# fix fxnpt2 all npt temp 450 300 $(100*dt) iso 1 1 $(1000*dt) mtk yes
# run 2000000
# unfix fxnpt2

fix fxnptrun all npt temp 300 300 $(100*dt) iso 1 1 $(1000*dt) mtk yes
fix fxnptrun all npt temp 300 300 2000 iso 1 1 $(1000*dt) mtk yes
fix fxnptrun all npt temp 300 300 2000 iso 1 1 20000 mtk yes
run 500000
PPPM initialization ...
  G vector (1/distance) = 0.14203324
  grid = 16 16 16
  stencil order = 4
  estimated absolute RMS force accuracy = 0.0038440705
  estimated relative force accuracy = 1.1576304e-05
  3d grid and FFT values/proc = 2197 512
Generated 0 of 6 mixed pair_coeff terms from geometric mixing rule
Step          Temp          E_pair         E_mol          TotEng         Press          Volume
0   293.47102     -48664.111      1579.461      -39309.594      152.56803      1051470.6
Averages over the last 2501 of 5001 rows, steps 250000 to 500000:
Temp E_pair E_mol TotEng Press Volume
299.956 -47601.9 1564.23 -38090.8 1.07349 1.07572e+06
Loop time of 1570.82 on 8 procs for 500000 steps with 8889 atoms

write_data end-cont3.data
System init for write_data ...
PPPM initialization ...
  G vector (1/distance) = 0.14974436
  grid = 18 18 18
  stencil order = 4
  estimated absolute RMS force accuracy = 0.0027470603
  estimated relative force accuracy = 8.2726906e-06
  3d grid and FFT values/proc = 2744 972
Generated 0 of 6 mixed pair_coeff terms from geometric mixing rule
