units real
dimension 3
boundary p p p
neighbor 0.3 bin
neigh_modify every 1 check yes

atom_style full
bond_style harmonic
angle_style cosine/squared
special_bonds lj/coul 0 1 1

region     box      block 0 210 0 210 0 210
create_box 4 box bond/types 1 angle/types 1 	extra/special/per/atom 3 	extra/bond/per/atom 2 	extra/angle/per/atom 2
Created orthogonal box = (0 0 0) to (210 210 210)

molecule 1 sds.txt
Read molecule template 1:
# SDS
  1 molecules
  0 fragments
  4 atoms with max type 2
  3 bonds with max type 1
  2 angles with max type 1
  0 dihedrals with max type 0
  0 impropers with max type 0
# 1 - Qa (SDS-H)
# 2 - C1
# 3 - Qd (Na)
# 4 - W

create_atoms     0 random 1000 1234345 box mol 1 1234563
Created 4000 atoms
create_atoms     3 random 1000 12334 box
Created 1000 atoms
create_atoms     4 random 75000 12333 box
Created 75000 atoms

mass 1 96
mass 2 56
mass 3 23
mass 4 72

pair_style hybrid/overlay lj/gromacs 9 12 coul/long 12

kspace_style pppm 1.0e-5
kspace_modify order 4

dielectric 80

set type 1 charge  -1
Setting atom values ...
  1000 settings made for charge
set type 3 charge  1
Setting atom values ...
  1000 settings made for charge
pair_coeff 1*3 1*3 coul/long

# In kcal/mol and Angstrom
pair_coeff 1 1 lj/gromacs  1.19 4.7
pair_coeff 1 2 lj/gromacs  0.48 6.2
pair_coeff 1 3 lj/gromacs  1.33 4.7
pair_coeff 1 4 lj/gromacs  1.33 4.7
pair_coeff 2 2 lj/gromacs  0.84 4.7
pair_coeff 2 3 lj/gromacs  0.48 6.2
pair_coeff 2 4 lj/gromacs  0.48 4.7
pair_coeff 3 3 lj/gromacs  1.19 4.7
pair_coeff 3 4 lj/gromacs  1.33 4.7
pair_coeff 4 4 lj/gromacs  1.19 4.7

bond_coeff 1 2.98 4.7
angle_coeff 1 5.97 180

write_data initial.data
System init for write_data ...
PPPM initialization ...
  G vector (1/distance) = 0.088494159
  grid = 15 15 15
  stencil order = 4
  estimated absolute RMS force accuracy = 0.0025512459
  estimated relative force accuracy = 7.6830012e-06
  3d grid and FFT values/proc = 1440 450
Generated 0 of 6 mixed pair_coeff terms from geometric mixing rule
dump        mydump  all atom 5000 sds.lammpstrj

velocity all create 400 600 dist gaussian
velocity all zero linear

min_style cg
minimize 0 0 10000 100000
PPPM initialization ...
  G vector (1/distance) = 0.088494159
  grid = 15 15 15
  stencil order = 4
  estimated absolute RMS force accuracy = 0.0025512459
  estimated relative force accuracy = 7.6830012e-06
  3d grid and FFT values/proc = 1440 450
Generated 0 of 6 mixed pair_coeff terms from geometric mixing rule
Step          Temp          E_pair         E_mol          TotEng         Press
0   400            2.0330012e+21  1038.2435      2.0330012e+21  6.0209339e+19
Loop time of 246.943 on 12 procs for 9540 steps with 80000 atoms

Minimization stats:
  Stopping criterion = linesearch alpha is zero
  Energy initial, next-to-last, final =
  Force two-norm initial, final = 1.9180555e+23 1.5821168
  Force max component initial, final = 5.9428885e+22 0.22983763
  Final line search alpha, max atom move = 2.7979724e-09 6.4307934e-10
  Iterations, force evaluations = 9540 13436

write_data initial.data
System init for write_data ...
PPPM initialization ...
  G vector (1/distance) = 0.088494159
  grid = 15 15 15
  stencil order = 4
  estimated absolute RMS force accuracy = 0.0025512459
  estimated relative force accuracy = 7.6830012e-06
  3d grid and FFT values/proc = 1440 450
Generated 0 of 6 mixed pair_coeff terms from geometric mixing rule

thermo              100

timestep 20

fix mom all momentum 1000 linear 1 1 1

fix fxnpt all npt temp 400.0 400.0 $(100*dt) tchain 1 iso 1 1 $(1000*dt) drag 1 mtk yes
fix fxnpt all npt temp 400.0 400.0 2000 tchain 1 iso 1 1 $(1000*dt) drag 1 mtk yes
fix fxnpt all npt temp 400.0 400.0 2000 tchain 1 iso 1 1 20000 drag 1 mtk yes
run 200000
PPPM initialization ...
  G vector (1/distance) = 0.088494159
  grid = 15 15 15
  stencil order = 4
  estimated absolute RMS force accuracy = 0.0025512459
  estimated relative force accuracy = 7.6830012e-06
  3d grid and FFT values/proc = 1440 450
Generated 0 of 6 mixed pair_coeff terms from geometric mixing rule
Step          Temp          E_pair         E_mol          TotEng         Press          Volume
9540   400           -586624.86      659.09919     -490581.03     -364.49914      9261000
Averages over the last 1001 of 2002 rows, steps 109600 to 209540:
Temp E_pair E_mol TotEng Press Volume
400.004 -428490 2016.95 -331087 1.10327 1.0689e+07
Loop time of 5172.17 on 12 procs for 200000 steps with 80000 atoms

unfix fxnpt

# fix fxnvt all nvt temp 300.0 400.0 $(100*dt) tchain 1
# run 200000
# unfix fxnvt

fix fxnpt all npt temp 400.0 300.0 $(100*dt) iso 1 1 $(1000*dt) drag 1 mtk yes
fix fxnpt all npt temp 400.0 300.0 2000 iso 1 1 $(1000*dt) drag 1 mtk yes
fix fxnpt all npt temp 400.0 300.0 2000 iso 1 1 20000 drag 1 mtk yes
run 500000
PPPM initialization ...
  G vector (1/distance) = 0.085531408
  grid = 15 15 15
  stencil order = 4
  estimated absolute RMS force accuracy = 0.0025560991
  estimated relative force accuracy = 7.6976166e-06
  3d grid and FFT values/proc = 1440 450
Generated 0 of 6 mixed pair_coeff terms from geometric mixing rule
Step          Temp          E_pair         E_mol          TotEng         Press          Volume
209540   399.7661      -428723.23      2044.001      -331350.28     -0.87991877     10689957
Averages over the last 2501 of 5002 rows, steps 459600 to 709540:
Temp E_pair E_mol TotEng Press Volume
325.061 -478018 1683.11 -398820 0.763346 9.83026e+06
Loop time of 12878.5 on 12 procs for 500000 steps with 80000 atoms

unfix fxnpt

fix fxnptrun all npt temp 300 300 $(100*dt) iso 1 1 $(1000*dt) mtk yes
fix fxnptrun all npt temp 300 300 2000 iso 1 1 $(1000*dt) mtk yes
fix fxnptrun all npt temp 300 300 2000 iso 1 1 20000 mtk yes
run 2000000
PPPM initialization ...
  G vector (1/distance) = 0.087770569
  grid = 15 15 15
  stencil order = 4
  estimated absolute RMS force accuracy = 0.002553948
  estimated relative force accuracy = 7.6911387e-06
  3d grid and FFT values/proc = 1440 450
Generated 0 of 6 mixed pair_coeff terms from geometric mixing rule
Step          Temp          E_pair         E_mol          TotEng         Press          Volume
709540   301.65953     -493860.02      1576.8244     -420348.92     -14.632799      9593115
Averages over the last 10001 of 20002 rows, steps 1709600 to 2709540:
Temp E_pair E_mol TotEng Press Volume
300.002 -493847 1571.71 -420736 1.05055 9.59046e+06
Loop time of 52175.8 on 12 procs for 2000000 steps with 80000 atoms

write_data end.data
System init for write_data ...
PPPM initialization ...
  G vector (1/distance) = 0.087790598
  grid = 15 15 15
  stencil order = 4
  estimated absolute RMS force accuracy = 0.0025538783
  estimated relative force accuracy = 7.6909287e-06
  3d grid and FFT values/proc = 1440 450
Generated 0 of 6 mixed pair_coeff terms from geometric mixing rule
