units real
dimension 3
boundary p p p
neighbor 0.3 bin
neigh_modify every 1 check yes

atom_style full
bond_style harmonic
angle_style cosine/squared
special_bonds lj/coul 0 1 1

read_data end.data
Reading data file ...
  orthogonal box = (-0.051247964 -0.051247964 -0.051247964) to (87.051248 87.051248 87.051248)
  reading atoms ...
  5333 atoms
  reading velocities ...
  5333 velocities
  scanning bonds ...
  scanning angles ...
  reading bonds ...
  3000 bonds
  reading angles ...
  2000 angles
Finding 1-2 1-3 1-4 neighbors ...
     2 = max # of 1-2 neighbors
     2 = max # of special neighbors

pair_style hybrid/overlay lj/gromacs 9 12 coul/long 12

kspace_style pppm 1.0e-5
kspace_modify order 4

dielectric 80

set type 1 charge  -1
Setting atom values ...
  1000 settings made for charge
set type 3 charge  1
Setting atom values ...
  1000 settings made for charge
pair_coeff 1*3 1*3 coul/long

## In kJ/mol and Angstrom
# pair_coeff 1 1   5.0 4.7
# pair_coeff 1 2   2.0 6.2
# pair_coeff 1 3   5.6 4.7
# pair_coeff 1 4   5.6 4.7
# pair_coeff 2 2   3.5 4.7
# pair_coeff 2 3   2.0 6.2
# pair_coeff 2 4   2.0 4.7
# pair_coeff 3 3   5.0 4.7
# pair_coeff 3 4   5.6 4.7
# pair_coeff 4 4   5.0 4.7
# bond_coeff 1 1250 4.7
# angle_coeff 1 25 180

# In kcal/mol and Angstrom
pair_coeff 1 1 lj/gromacs  1.19 4.7
pair_coeff 1 2 lj/gromacs  0.48 6.2
pair_coeff 1 3 lj/gromacs  1.33 4.7
pair_coeff 1 4 lj/gromacs  1.33 4.7
pair_coeff 2 2 lj/gromacs  0.84 4.7
pair_coeff 2 3 lj/gromacs  0.48 6.2
pair_coeff 2 4 lj/gromacs  0.48 4.7
pair_coeff 3 3 lj/gromacs  1.19 4.7
pair_coeff 3 4 lj/gromacs  1.33 4.7
pair_coeff 4 4 lj/gromacs  1.19 4.7

bond_coeff 1 2.98 4.7
angle_coeff 1 5.97 180

dump        mydump  all atom 5000 sds-continue.lammpstrj

thermo              100
timestep 20

fix mom all momentum 1000 linear 1 1 1

fix fxnpt1 all npt temp 300 450 $(100*dt) iso 1 1 $(1000*dt) mtk yes
fix fxnpt1 all npt temp 300 450 2000 iso 1 1 $(1000*dt) mtk yes
fix fxnpt1 all npt temp 300 450 2000 iso 1 1 20000 mtk yes
run 100000
PPPM initialization ...
  G vector (1/distance) = 0.16094687
  grid = 18 18 18
  stencil order = 4
  estimated absolute RMS force accuracy = 0.0027387087
  estimated relative force accuracy = 8.24754e-06
  3d grid and FFT values/proc = 2744 972
Generated 0 of 6 mixed pair_coeff terms from geometric mixing rule
  update every 1 steps, delay 10 steps, check yes
Step          Temp          E_pair         E_mol          TotEng         Press          Volume
0   295.63569     -25910.438      1566.8869     -19644.812      71.671558      660833.12
Averages over the last 501 of 1001 rows, steps 50000 to 100000:
Temp E_pair E_mol TotEng Press Volume
412.089 -21526.8 2029.71 -12947.5 0.341502 758808
Loop time of 128.523 on 8 procs for 100000 steps with 5333 atoms

unfix fxnpt1

fix fxnpt2 all npt temp 450 450 $(100*dt) iso 1 1 $(1000*dt) mtk yes
fix fxnpt2 all npt temp 450 450 2000 iso 1 1 $(1000*dt) mtk yes
fix fxnpt2 all npt temp 450 450 2000 iso 1 1 20000 mtk yes
run 2000000
PPPM initialization ...
  G vector (1/distance) = 0.15636388
  grid = 18 18 18
  stencil order = 4
  estimated absolute RMS force accuracy = 0.0030561496
  estimated relative force accuracy = 9.2035039e-06
  3d grid and FFT values/proc = 2744 972
Generated 0 of 6 mixed pair_coeff terms from geometric mixing rule
Step          Temp          E_pair         E_mol          TotEng         Press          Volume
100000   455.4395      -19755.675      2159.3833     -10357.682      35.504415      806889.14
Averages over the last 10001 of 20001 rows, steps 1100000 to 2100000:
Temp E_pair E_mol TotEng Press Volume
449.525 -19761.8 2201.24 -10416 0.310638 810096
Loop time of 2503.98 on 8 procs for 2000000 steps with 5333 atoms

unfix fxnpt2

# fix fxnpt2 all npt temp 450 300 $(100*dt) iso 1 1 $(1000*dt) mtk yes
# run 2000000
# unfix fxnpt2

# fix fxnptrun all npt temp 300 300 $(100*dt) iso 1 1 $(1000*dt) mtk yes
# run 1000000

write_data end-cont.data
System init for write_data ...
PPPM initialization ...
  G vector (1/distance) = 0.15640054
  grid = 18 18 18
  stencil order = 4
  estimated absolute RMS force accuracy = 0.0030535349
  estimated relative force accuracy = 9.1956295e-06
  3d grid and FFT values/proc = 2744 972
Generated 0 of 6 mixed pair_coeff terms from geometric mixing rule
