units real
dimension 3
boundary p p p
neighbor 0.3 bin
neigh_modify every 1 check yes

atom_style full
bond_style harmonic
angle_style cosine/squared
special_bonds lj/coul 0 1 1

region     box      block 0 87 0 87 0 87
create_box 4 box bond/types 1 angle/types 1 	extra/special/per/atom 3 	extra/bond/per/atom 2 	extra/angle/per/atom 2
Created orthogonal box = (0 0 0) to (87 87 87)

molecule 1 sds.txt
Read molecule template 1:
  1 molecules
  0 fragments
  4 atoms with max type 2
  3 bonds with max type 1
  2 angles with max type 1
  0 dihedrals with max type 0
  0 impropers with max type 0
# 1 - Qa (SDS-H)
# 2 - C1
# 3 - Qd (Na)
# 4 - W

create_atoms     0 random 1000 123458 box mol 1 128
Created 4000 atoms
create_atoms     3 random 1000 134478 box
Created 1000 atoms
create_atoms     4 random 333 13348 box
Created 333 atoms

mass 1 96
mass 2 56
mass 3 23
mass 4 72

pair_style hybrid/overlay lj/gromacs 9 12 coul/long 12

kspace_style pppm 1.0e-5
kspace_modify order 4

dielectric 80

set type 1 charge  -1
Setting atom values ...
  1000 settings made for charge
set type 3 charge  1
Setting atom values ...
  1000 settings made for charge
pair_coeff 1*3 1*3 coul/long

## In kJ/mol and Angstrom
# pair_coeff 1 1   5.0 4.7
# pair_coeff 1 2   2.0 6.2
# pair_coeff 1 3   5.6 4.7
# pair_coeff 1 4   5.6 4.7
# pair_coeff 2 2   3.5 4.7
# pair_coeff 2 3   2.0 6.2
# pair_coeff 2 4   2.0 4.7
# pair_coeff 3 3   5.0 4.7
# pair_coeff 3 4   5.6 4.7
# pair_coeff 4 4   5.0 4.7
# bond_coeff 1 1250 4.7
# angle_coeff 1 25 180

# In kcal/mol and Angstrom
pair_coeff 1 1 lj/gromacs  1.19 4.7
pair_coeff 1 2 lj/gromacs  0.48 6.2
pair_coeff 1 3 lj/gromacs  1.33 4.7
pair_coeff 1 4 lj/gromacs  1.33 4.7
pair_coeff 2 2 lj/gromacs  0.84 4.7
pair_coeff 2 3 lj/gromacs  0.48 6.2
pair_coeff 2 4 lj/gromacs  0.48 4.7
pair_coeff 3 3 lj/gromacs  1.19 4.7
pair_coeff 3 4 lj/gromacs  1.33 4.7
pair_coeff 4 4 lj/gromacs  1.19 4.7

bond_coeff 1 2.98 4.7
angle_coeff 1 5.97 180

write_data initial.data
System init for write_data ...
PPPM initialization ...
  G vector (1/distance) = 0.16102757
  grid = 18 18 18
  stencil order = 4
  estimated absolute RMS force accuracy = 0.0027332937
  estimated relative force accuracy = 8.2312327e-06
  3d grid and FFT values/proc = 2744 972
Generated 0 of 6 mixed pair_coeff terms from geometric mixing rule
  update every 1 steps, delay 10 steps, check yes
dump        mydump  all atom 5000 sds.lammpstrj

velocity all create 300 666 dist gaussian
velocity all zero linear

min_style cg
minimize 0 0 10000 100000
PPPM initialization ...
  G vector (1/distance) = 0.16102757
  grid = 18 18 18
  stencil order = 4
  estimated absolute RMS force accuracy = 0.0027332937
  estimated relative force accuracy = 8.2312327e-06
  3d grid and FFT values/proc = 2744 972
Generated 0 of 6 mixed pair_coeff terms from geometric mixing rule
Step          Temp          E_pair         E_mol          TotEng         Press
0   300            3.2690092e+17  1038.2435      3.2690092e+17  1.3615779e+17
Loop time of 11.5731 on 8 procs for 5121 steps with 5333 atoms

Minimization stats:
  Stopping criterion = linesearch alpha is zero
  Energy initial, next-to-last, final =
  Force two-norm initial, final = 1.5397813e+19 0.61865886
  Force max component initial, final = 7.2167775e+18 0.20201112
  Final line search alpha, max atom move = 3.0561427e-08 6.1737481e-09
  Iterations, force evaluations = 5121 8128

thermo              100
timestep 20

fix mom all momentum 1000 linear 1 1 1

fix fxnpt1 all npt temp 300 300 $(100*dt) iso 1 1 $(1000*dt) mtk yes
fix fxnpt1 all npt temp 300 300 2000 iso 1 1 $(1000*dt) mtk yes
fix fxnpt1 all npt temp 300 300 2000 iso 1 1 20000 mtk yes
run 1000000
PPPM initialization ...
  G vector (1/distance) = 0.16102757
  grid = 18 18 18
  stencil order = 4
  estimated absolute RMS force accuracy = 0.0027332937
  estimated relative force accuracy = 8.2312327e-06
  3d grid and FFT values/proc = 2744 972
Generated 0 of 6 mixed pair_coeff terms from geometric mixing rule
Step          Temp          E_pair         E_mol          TotEng         Press          Volume
5121   300           -26495.181      1151.6274     -20575.45       543.9463       658503
Averages over the last 5001 of 10002 rows, steps 505200 to 1005121:
Temp E_pair E_mol TotEng Press Volume
299.944 -25630.5 1530.35 -19332.9 1.90828 667691
Loop time of 1641 on 8 procs for 1000000 steps with 5333 atoms

unfix fxnpt1

write_data end.data
System init for write_data ...
PPPM initialization ...
  G vector (1/distance) = 0.16094687
  grid = 18 18 18
  stencil order = 4
  estimated absolute RMS force accuracy = 0.0027387087
  estimated relative force accuracy = 8.24754e-06
  3d grid and FFT values/proc = 2744 972
Generated 0 of 6 mixed pair_coeff terms from geometric mixing rule
