units real
dimension 3
boundary p p p
neighbor 0.3 bin
neigh_modify every 1 check yes

atom_style full
bond_style harmonic
angle_style cosine/squared
special_bonds lj/coul 0 1 1

region     box      block 0 87 0 87 0 87
create_box 4 box bond/types 1 angle/types 1 	extra/special/per/atom 3 	extra/bond/per/atom 2 	extra/angle/per/atom 2
Created orthogonal box = (0 0 0) to (87 87 87)

molecule 1 sds.txt
Read molecule template 1:
  1 molecules
  0 fragments
  4 atoms with max type 2
  3 bonds with max type 1
  2 angles with max type 1
  0 dihedrals with max type 0
  0 impropers with max type 0
# 1 - Qa (SDS-H)
# 2 - C1
# 3 - Qd (Na)
# 4 - W

create_atoms     0 random 1000 123458 box mol 1 128
Created 4000 atoms
create_atoms     3 random 1000 134478 box
Created 1000 atoms
# create_atoms     4 random 333 13348 box
create_atoms     4 random 905 13348 box
Created 905 atoms

mass 1 96
mass 2 56
mass 3 23
mass 4 72

pair_style hybrid/overlay lj/gromacs 9 12 coul/long 12

kspace_style pppm 1.0e-5
kspace_modify order 4

dielectric 80

set type 1 charge  -1
Setting atom values ...
  1000 settings made for charge
set type 3 charge  1
Setting atom values ...
  1000 settings made for charge
pair_coeff 1*3 1*3 coul/long

# In kcal/mol and Angstrom
pair_coeff 1 1 lj/gromacs  1.19 4.7
pair_coeff 1 2 lj/gromacs  0.48 6.2
pair_coeff 1 3 lj/gromacs  1.33 4.7
pair_coeff 1 4 lj/gromacs  1.33 4.7
pair_coeff 2 2 lj/gromacs  0.84 4.7
pair_coeff 2 3 lj/gromacs  0.48 6.2
pair_coeff 2 4 lj/gromacs  0.48 4.7
pair_coeff 3 3 lj/gromacs  1.19 4.7
pair_coeff 3 4 lj/gromacs  1.33 4.7
pair_coeff 4 4 lj/gromacs  1.19 4.7

bond_coeff 1 2.98 4.7
angle_coeff 1 5.97 180

write_data initial-mass.data
System init for write_data ...
PPPM initialization ...
  G vector (1/distance) = 0.15289546
  grid = 16 16 16
  stencil order = 4
  estimated absolute RMS force accuracy = 0.003752022
  estimated relative force accuracy = 1.1299103e-05
  3d grid and FFT values/proc = 2197 512
Generated 0 of 6 mixed pair_coeff terms from geometric mixing rule
  update every 1 steps, delay 10 steps, check yes
dump        mydump  all atom 5000 sds-mass.lammpstrj

velocity all create 450 666 dist gaussian
velocity all zero linear

min_style cg
minimize 0 0 10000 100000
PPPM initialization ...
  G vector (1/distance) = 0.15289546
  grid = 16 16 16
  stencil order = 4
  estimated absolute RMS force accuracy = 0.003752022
  estimated relative force accuracy = 1.1299103e-05
  3d grid and FFT values/proc = 2197 512
Generated 0 of 6 mixed pair_coeff terms from geometric mixing rule
Step          Temp          E_pair         E_mol          TotEng         Press
0   450            3.2794779e+17  1038.2435      3.2794779e+17  1.3659382e+17
Loop time of 14.4768 on 8 procs for 6273 steps with 5905 atoms

Minimization stats:
  Stopping criterion = linesearch alpha is zero
  Energy initial, next-to-last, final =
  Force two-norm initial, final = 1.539792e+19 0.64798341
  Force max component initial, final = 7.2167775e+18 0.11275082
  Final line search alpha, max atom move = 2.2755927e-08 2.5657493e-09
  Iterations, force evaluations = 6273 9519

thermo              100
timestep 20

fix mom all momentum 1000 linear 1 1 1

fix fxnpt1 all npt temp 450 450 $(100*dt) iso 1 1 $(1000*dt) mtk yes
fix fxnpt1 all npt temp 450 450 2000 iso 1 1 $(1000*dt) mtk yes
fix fxnpt1 all npt temp 450 450 2000 iso 1 1 20000 mtk yes
run 1000000
PPPM initialization ...
  G vector (1/distance) = 0.15289546
  grid = 16 16 16
  stencil order = 4
  estimated absolute RMS force accuracy = 0.003752022
  estimated relative force accuracy = 1.1299103e-05
  3d grid and FFT values/proc = 2197 512
Generated 0 of 6 mixed pair_coeff terms from geometric mixing rule
Step          Temp          E_pair         E_mol          TotEng         Press          Volume
6273   450           -30761.469      1512.5203     -21329.532      2266.8513      658503
Averages over the last 5001 of 10002 rows, steps 506300 to 1006273:
Temp E_pair E_mol TotEng Press Volume
449.678 -22262.7 2210.4 -12138.6 0.944256 896018
Loop time of 1398.78 on 8 procs for 1000000 steps with 5905 atoms

unfix fxnpt1

fix fxnpt1 all npt temp 450 300 $(100*dt) iso 1 1 $(1000*dt) mtk yes
fix fxnpt1 all npt temp 450 300 2000 iso 1 1 $(1000*dt) mtk yes
fix fxnpt1 all npt temp 450 300 2000 iso 1 1 20000 mtk yes
run 1000000
PPPM initialization ...
  G vector (1/distance) = 0.15388239
  grid = 18 18 18
  stencil order = 4
  estimated absolute RMS force accuracy = 0.0030751128
  estimated relative force accuracy = 9.2606107e-06
  3d grid and FFT values/proc = 2744 972
Generated 0 of 6 mixed pair_coeff terms from geometric mixing rule
Step          Temp          E_pair         E_mol          TotEng         Press          Volume
1006273   456.7745      -22217.009      2192.4129     -11985.958      18.351216      898448.4
Averages over the last 5001 of 10002 rows, steps 1506300 to 2006273:
Temp E_pair E_mol TotEng Press Volume
337.345 -27421.8 1696.17 -19788.8 1.37099 766233
Loop time of 1741.6 on 8 procs for 1000000 steps with 5905 atoms

unfix fxnpt1

fix fxnpt1 all npt temp 300 300 $(100*dt) iso 1 1 $(1000*dt) mtk yes
fix fxnpt1 all npt temp 300 300 2000 iso 1 1 $(1000*dt) mtk yes
fix fxnpt1 all npt temp 300 300 2000 iso 1 1 20000 mtk yes
run 1000000
PPPM initialization ...
  G vector (1/distance) = 0.15868346
  grid = 18 18 18
  stencil order = 4
  estimated absolute RMS force accuracy = 0.0027493407
  estimated relative force accuracy = 8.2795577e-06
  3d grid and FFT values/proc = 2744 972
Generated 0 of 6 mixed pair_coeff terms from geometric mixing rule
Step          Temp          E_pair         E_mol          TotEng         Press          Volume
2006273   300.01279     -29225.924      1598.968      -22347.12      -9.073694       729455.74
Averages over the last 5001 of 10002 rows, steps 2506300 to 3006273:
Temp E_pair E_mol TotEng Press Volume
299.956 -30084.3 1380.39 -23425.1 1.16627 719642
Loop time of 1865.75 on 8 procs for 1000000 steps with 5905 atoms

unfix fxnpt1

write_data end-mass.data
System init for write_data ...
PPPM initialization ...
  G vector (1/distance) = 0.15941976
  grid = 18 18 18
  stencil order = 4
  estimated absolute RMS force accuracy = 0.0027011075
  estimated relative force accuracy = 8.134305e-06
  3d grid and FFT values/proc = 2744 972
Generated 0 of 6 mixed pair_coeff terms from geometric mixing rule
