LAMMPS (23 Jun 2022 - Update 3)
units lj
dimension 3
boundary p p p
neighbor 0.4 bin
neigh_modify every 1 delay 0 check yes
# comm_modify mode single cutoff 2.5 vel yes
comm_modify vel yes

atom_style hybrid angle mdpd charge

region     box      block 0 10 0 10 0 10
create_box 4 box bond/types 1 angle/types 1 	extra/special/per/atom 3 	extra/bond/per/atom 2 	extra/angle/per/atom 2
Created orthogonal box = (0 0 0) to (10 10 10)

molecule 1 sds.txt
Read molecule template 1:
  1 molecules
  0 fragments
  4 atoms with max type 2
  3 bonds with max type 1
  2 angles with max type 1
  0 dihedrals with max type 0
  0 impropers with max type 0

# create_atoms     0 random 200 2345 box mol 1 12345
# create_atoms     3 random 200 1234 box
# create_atoms     4 random 797 12458 box
# create_atoms     4 random 1062 125 box

create_atoms     0 random 1000 2345 box mol 1 12345
Created 4000 atoms
create_atoms     3 random 1000 1234 box
Created 1000 atoms
create_atoms     4 random 3985 12458 box
Created 3985 atoms

mass * 1

pair_style hybrid/overlay mdpd/rhosum mdpd 1.0 1.0 65689 coul/long 2.0
# pair_style hybrid/overlay mdpd/rhosum mdpd 1.0 1.0 65689
pair_coeff  *  *   mdpd/rhosum  0.75

# Adds one more property to the atoms, q = charge
# ghost yes is necessary for computational stuff

# dielectric 80

kspace_style pppm 1.0e-5
kspace_modify order 4 mesh 20 20 20

set type 1 charge  -1
Setting atom values ...
  1000 settings made for charge
set type 3 charge  1
Setting atom values ...
  1000 settings made for charge
pair_coeff  1*3  1*3 coul/long

# 1 - Qa (SDS-H)
# 2 - C1
# 3 - Qd (Na)
# 4 - W

variable gamma equal 0 # 4.5

pair_coeff  1  1   mdpd  -30.0  25.0  $(v_gamma)  1.0  0.75
pair_coeff  1  1   mdpd  -30.0  25.0  0  1.0  0.75
pair_coeff  1  2   mdpd  -26.0  25.0  $(v_gamma)  1.0  0.75
pair_coeff  1  2   mdpd  -26.0  25.0  0  1.0  0.75
pair_coeff  1  3   mdpd  -30.0  25.0  $(v_gamma)  1.0  0.75
pair_coeff  1  3   mdpd  -30.0  25.0  0  1.0  0.75
pair_coeff  1  4   mdpd  -50.0  25.0  $(v_gamma)  1.0  0.75
pair_coeff  1  4   mdpd  -50.0  25.0  0  1.0  0.75

pair_coeff  2  2   mdpd  -26.0  25.0  $(v_gamma)  1.0  0.75
pair_coeff  2  2   mdpd  -26.0  25.0  0  1.0  0.75
pair_coeff  2  3   mdpd  -26.0  25.0  $(v_gamma)  1.0  0.75
pair_coeff  2  3   mdpd  -26.0  25.0  0  1.0  0.75
pair_coeff  2  4   mdpd  -26.0  25.0  $(v_gamma)  1.0  0.75
pair_coeff  2  4   mdpd  -26.0  25.0  0  1.0  0.75

pair_coeff  3  3   mdpd  -30.0  25.0  $(v_gamma)  1.0  0.75
pair_coeff  3  3   mdpd  -30.0  25.0  0  1.0  0.75
pair_coeff  3  4   mdpd  -50.0  25.0  $(v_gamma)  1.0  0.75
pair_coeff  3  4   mdpd  -50.0  25.0  0  1.0  0.75

pair_coeff  4  4   mdpd  -50.0  25.0  $(v_gamma)  1.0  0.75
pair_coeff  4  4   mdpd  -50.0  25.0  0  1.0  0.75

# special_bonds lj 0 1 1

bond_style harmonic
bond_coeff 1 150 0.5

angle_style harmonic
angle_coeff 1 5 180

write_data initial.data
System init for write_data ...
PPPM initialization ...
  G vector (1/distance) = 1.1546787
  grid = 20 20 20
  stencil order = 4
  estimated absolute RMS force accuracy = 0.006441851
  estimated relative force accuracy = 0.006441851
  3d grid and FFT values/proc = 3375 1200
Generated 0 of 6 mixed pair_coeff terms from geometric mixing rule
  update every 1 steps, delay 0 steps, check yes
dump        mydump  all atom 2000 sds.lammpstrj

min_style cg
minimize 0 0 1000 10000

CITE-CITE-CITE-CITE-CITE-CITE-CITE-CITE-CITE-CITE-CITE-CITE-CITE

Your simulation uses code contributions which should be cited:

- pair mdpd command:

@Article{ZLi2013_POF,
 author = {Li, Z. and Hu, G.H. and Wang, Z.L. and Ma Y.B. and Zhou, Z.W.},
 title = {Three dimensional flow structures in a moving droplet on substrate: a dissipative particle dynamics study},
 journal = {Physics of Fluids},
 year = {2013},
 volume = {25},
 pages = {072103}
}

CITE-CITE-CITE-CITE-CITE-CITE-CITE-CITE-CITE-CITE-CITE-CITE-CITE

PPPM initialization ...
  G vector (1/distance) = 1.1546787
  grid = 20 20 20
  stencil order = 4
  estimated absolute RMS force accuracy = 0.006441851
  estimated relative force accuracy = 0.006441851
  3d grid and FFT values/proc = 3375 1200
Generated 0 of 6 mixed pair_coeff terms from geometric mixing rule
Step          Temp          E_pair         E_mol          TotEng         Press
0   0              52.311894      1.2850662e-17  52.311894      1070.7101
Loop time of 0.317058 on 8 procs for 11 steps with 8985 atoms

Minimization stats:
  Stopping criterion = linesearch alpha is zero
  Energy initial, next-to-last, final =
  Force two-norm initial, final = 76575.596 3046.0191
  Force max component initial, final = 4219.8623 94.649715
  Final line search alpha, max atom move = 7.8717412e-12 7.4505806e-10
  Iterations, force evaluations = 11 40

velocity all create 1.0 220 dist gaussian
velocity all zero linear

thermo              100
timestep            0.01

# fix mom all momentum 1000 linear 1 1 1

fix fxnpt all npt temp 1.2 1.2 $(100*dt) tchain 1 iso 0.1 0.1 $(1000*dt) drag 1 mtk yes
fix fxnpt all npt temp 1.2 1.2 1 tchain 1 iso 0.1 0.1 $(1000*dt) drag 1 mtk yes
fix fxnpt all npt temp 1.2 1.2 1 tchain 1 iso 0.1 0.1 10 drag 1 mtk yes
run 500000
PPPM initialization ...
  G vector (1/distance) = 1.1546787
  grid = 20 20 20
  stencil order = 4
  estimated absolute RMS force accuracy = 0.006441851
  estimated relative force accuracy = 0.006441851
  3d grid and FFT values/proc = 3375 1200
Generated 0 of 6 mixed pair_coeff terms from geometric mixing rule
Step          Temp          E_pair         E_mol          TotEng         Press          Volume
11   1             -2.4692361      1.2558939      0.28649083     336.59504      1000
Averages over the last 2501 of 5002 rows, steps 250100 to 500011:
Temp E_pair E_mol TotEng Press Volume
1.4924 -10.0386 0.617397 -7.18285 0.0947237 1551.26
Loop time of 4114.78 on 8 procs for 500000 steps with 8985 atoms

unfix fxnpt

variable gamma equal 4.5 # 4.5
pair_coeff  1  1   mdpd  -30.0  25.0  $(v_gamma)  1.0  0.75
pair_coeff  1  1   mdpd  -30.0  25.0  4.5  1.0  0.75
pair_coeff  1  2   mdpd  -26.0  25.0  $(v_gamma)  1.0  0.75
pair_coeff  1  2   mdpd  -26.0  25.0  4.5  1.0  0.75
pair_coeff  1  3   mdpd  -30.0  25.0  $(v_gamma)  1.0  0.75
pair_coeff  1  3   mdpd  -30.0  25.0  4.5  1.0  0.75
pair_coeff  1  4   mdpd  -50.0  25.0  $(v_gamma)  1.0  0.75
pair_coeff  1  4   mdpd  -50.0  25.0  4.5  1.0  0.75

pair_coeff  2  2   mdpd  -26.0  25.0  $(v_gamma)  1.0  0.75
pair_coeff  2  2   mdpd  -26.0  25.0  4.5  1.0  0.75
pair_coeff  2  3   mdpd  -26.0  25.0  $(v_gamma)  1.0  0.75
pair_coeff  2  3   mdpd  -26.0  25.0  4.5  1.0  0.75
pair_coeff  2  4   mdpd  -26.0  25.0  $(v_gamma)  1.0  0.75
pair_coeff  2  4   mdpd  -26.0  25.0  4.5  1.0  0.75

pair_coeff  3  3   mdpd  -30.0  25.0  $(v_gamma)  1.0  0.75
pair_coeff  3  3   mdpd  -30.0  25.0  4.5  1.0  0.75
pair_coeff  3  4   mdpd  -50.0  25.0  $(v_gamma)  1.0  0.75
pair_coeff  3  4   mdpd  -50.0  25.0  4.5  1.0  0.75

pair_coeff  4  4   mdpd  -50.0  25.0  $(v_gamma)  1.0  0.75
pair_coeff  4  4   mdpd  -50.0  25.0  4.5  1.0  0.75

# fix fxnpt all npt temp 1.2 1.0 $(100*dt) tchain 1 iso 0 0 $(1000*dt) drag 1 mtk yes
# run 20000
# unfix fxnpt

# fix fxnpt all npt temp 1.0 1.0 $(100*dt) tchain 1 iso 0 0 $(1000*dt)mtk yes
# fix         mvv     all mvv/dpd 0.65
fix         mvv     all nph iso 0.1 0.1 $(1000*dt)
fix         mvv     all nph iso 0.1 0.1 10
run                 1000000
PPPM initialization ...
  G vector (1/distance) = 1.0992011
  grid = 20 20 20
  stencil order = 4
  estimated absolute RMS force accuracy = 0.0085459426
  estimated relative force accuracy = 0.0085459426
  3d grid and FFT values/proc = 3375 1200
Generated 0 of 6 mixed pair_coeff terms from geometric mixing rule
Step          Temp          E_pair         E_mol          TotEng         Press          Volume
500011   1.4920173     -9.981513       0.61077121    -7.132965       0.74473324     1545.8999
Averages over the last 5001 of 10002 rows, steps 1000100 to 1500011:
Temp E_pair E_mol TotEng Press Volume
1.06942 -10.6844 0.455921 -8.62455 0.101653 1484.1
Loop time of 7659.51 on 8 procs for 1000000 steps with 8985 atoms

write_data end.data
System init for write_data ...
PPPM initialization ...
  G vector (1/distance) = 1.1046966
  grid = 20 20 20
  stencil order = 4
  estimated absolute RMS force accuracy = 0.0083163894
  estimated relative force accuracy = 0.0083163894
  3d grid and FFT values/proc = 3375 1200
Generated 0 of 6 mixed pair_coeff terms from geometric mixing rule
